<configuration>
<input>
<net-file value="test.net.xml"/>
<route-files value="test.rou.xml"/>
</input>
<time>
<begin value="0"/>
<end value="60"/>
</time>
</configuration>