<?xml version="1.0" encoding="UTF-8"?>

<!-- generated on 2024-03-16 18:29:33.810507 by randomTrips.py v1_19_0+0000-baa66a0f364
<configuration>
    <net-file value="test.net.xml"/>
    <route-file value="test.rou.xml"/>
    <lanes value="True"/>
    <end value="0.5"/>
    <period value="0.01"/>
</configuration>
-->

<!-- generated on 2024-03-16 18:29:33 by Eclipse SUMO duarouter Version 1.19.0
<configuration xmlns:xsi="http://www.w3.org/2001/XMLSchema-instance" xsi:noNamespaceSchemaLocation="http://sumo.dlr.de/xsd/duarouterConfiguration.xsd">

    <input>
        <net-file value="test.net.xml"/>
        <route-files value="trips.trips.xml"/>
    </input>

    <output>
        <output-file value="test.rou.xml"/>
        <alternatives-output value="NUL"/>
    </output>

    <time>
        <begin value="0"/>
        <end value="0.5"/>
    </time>

    <report>
        <no-warnings value="true"/>
        <ignore-errors value="true"/>
        <no-step-log value="true"/>
    </report>

</configuration>
-->

<routes xmlns:xsi="http://www.w3.org/2001/XMLSchema-instance" xsi:noNamespaceSchemaLocation="http://sumo.dlr.de/xsd/routes_file.xsd">
    <vehicle id="0" depart="0.00">
        <route edges="333061572#1 333061569 333061574#0 333061574#1 333061574#2 333061574#3 333061563 81527791#0 81527791#1 81527791#2 81527787#0 81527787#1 572656879#0 572656879#1 34031136 114555485#0 114555485#1 114555487 114555484 231158430#0 231158430#1 195828017#0 195828017#1 195828017#2 195828017#3 195828017#4 195828017#5 195828017#6 195828017#7 193134983 193134987 36729028#0 36729028#1 36729028#2 36729029#0 36729029#1 36729029#2 36729029#3 193134986#0 193134986#1 193134984 193134985 193134988#0 193134988#1 193134988#2 28408160#0 28408160#1 193139551 193139537 193139533 193139549#0 193139549#1 193139529 193139541#0 193139541#1 193139554#0 193139554#1 36729031 30528321#0 30528321#1 317000785 97129664#0 97129664#1 97129661#0 97129661#1 97129661#2 97129661#3 -1193733954 -81924137#2 -81924137#1 -81924137#0 -81924141#1 -81924141#0 -386781413 -28656019#3 -28656019#2 36729035#0 36729035#1 36729035#2 196602996 196602997#0 196602997#1 41454600#0 41454600#1 123901490 86597190#0 86597190#1 36729036#0 36729036#1 36729036#2 36729036#3 36729036#4 36729036#5 -80715861#1 -80715861#0 123905590#0 123905590#1 85248832#0 85248832#1 85248828 85248829 37498324 -81152595#1 -81152595#0 -81152597 -81152596#3 -81152596#2 123412755#0 123412755#1 59803646 -59803646 -123412755#1"/>
    </vehicle>
    <vehicle id="1" depart="0.01">
        <route edges="-81924141#1 81924141#1 81924137#0 81924137#1 81924137#2 1193733954 -97129661#3 -97129661#2 -97129661#1 -97129661#0 -97129664#1 -97129664#0 -317000785 -30528321#1 -30528321#0 -76335649#1"/>
    </vehicle>
    <vehicle id="3" depart="0.03">
        <route edges="77893331#0 77893331#1 77893335 77893340 77893327#0 77893327#1 1066551973#0 1066551973#1 1193733954 -97129661#3 -97129661#2 -97129661#1 -97129661#0 -97129664#1 -97129664#0 -317000785 -30528321#1 -30528321#0 -76335649#1 -76335649#0 -76335031 -233999099 -98304770 -62212961#1 -62212961#0 -15245482#3 -15245482#2 -15245482#1 -15245482#0 -233999572#2 -233999572#1 -233999572#0 -76333547 -76333545 -234000028 -62212960 -36726224 -36726223#1 62212736#2 62212736#3 62212737 62212741 234001133#0 234001133#1 234001132 332402672#0 332402672#1 234001131 132422343 62212740 332402673#0 332402673#1 332402673#2 36729011#1 36729012 316713565 62200559#0 62200559#1 128171761 1122952688 -1122952688 -128171761 -62200559#1 -62200559#0 -316713565"/>
    </vehicle>
    <vehicle id="4" depart="0.04">
        <route edges="193134983 193134987 36729028#0 36729028#1 36729028#2 36729029#0 36729029#1 36729029#2 36729029#3 193134986#0 193134986#1 193134984 193134985 193134988#0 193134988#1 193134988#2 28408160#0 28408160#1 193139551 193139537 193139533 193139549#0 193139549#1 193139529 193139541#0 193139541#1 193139554#0 193139554#1 36729031 -36729030#1 -36729030#0 -18385008#3 -18385008#2 -18385008#1 -18385008#0 123911189#0 123911189#1 123911189#2 123911189#3 123911189#4 123911189#5 25614338#0 25614338#1 77615451#0 -77465095#1 -77465095#0 -77615029 -232042787 -77615028 -77647468#2 -77647468#1 -77647468#0 -77465096 -7920348#1 -7920348#0 -62383932#2 -62383932#1 -62383932#0 -62383930#4 -62383930#3 -62383930#2 -62383930#1 -62383930#0 -62383931 -259716340 -62383934 -34031654 -127104874"/>
    </vehicle>
    <vehicle id="5" depart="0.05">
        <route edges="-75621805 -134994760 134994760 75621805 36729039#0 36729039#1 36729039#2 60754206 60754211 60754209#0 60754209#1 60754207 60754205#0 60754205#1 60754208 60754212 60754210#0 60754210#1 -60738729#1 -60738729#0 -85247849 -30097052#1 77893328#0 77893328#1 123905592 85247774#0 85247774#1 85247773 77893344#0 77893344#1 77893344#2 1066551972#0 1066551972#1 77893331#0 77893331#1 77893335 77893340 77893327#0 77893327#1 1066551973#0 1066551973#1 1193733954 -97129661#3 -97129661#2 -97129661#1 -97129661#0 -97129664#1 -97129664#0 -317000785 -30528321#1 -30528321#0 -76335649#1 -76335649#0 -76335031 -233999099 -98304770 -62212961#1 -62212961#0 -15245482#3 -15245482#2 -15245482#1 -15245482#0 -233999572#2 -233999572#1 -233999572#0 -76333547 -76333545 -234000028 -62212960 -36726224 -36726223#1 62212736#2 62212736#3 62212737 62212741 234001133#0 234001133#1 234001132 332402672#0 332402672#1 234001131 132422343 62212740 332402673#0 332402673#1 332402673#2 62212739#0 62212739#1 332402669#0 332402669#1 332402669#2 332402669#3 234002366"/>
    </vehicle>
    <vehicle id="6" depart="0.06">
        <route edges="-123635329#0 82410875#0 82410875#1 4236417#0 4236417#1 82410883#0 82410883#1 82410885#0 82410885#1 82410885#2 36729035#0 36729035#1 36729035#2 196602996 196602997#0 196602997#1 41454600#0 41454600#1 -54821945#1 -54821945#0 -54818681#2 -54818681#1 -54818681#0 -54818682#1 -54818682#0 -77893337#2 -77893337#1 -77893337#0 -77465097#2 -77465097#1 -77465097#0 -77893334#1 -77893334#0 -36729037#2 -36729037#1 -36729037#0 -127104868#1 -127104868#0 -62383932#2 -62383932#1 -62383932#0 -62383930#4"/>
    </vehicle>
    <vehicle id="7" depart="0.07">
        <route edges="34031136 114555485#0 114555485#1 114555487 114555484 231158430#0 231158430#1 195828017#0 195828017#1 195828017#2 195828017#3 195828017#4 195828017#5 195828017#6 195828017#7 193134983 193134987 36729028#0 36729028#1 36729028#2 36729029#0 36729029#1 36729029#2 36729029#3 193134986#0 193134986#1 193134984 193134985 193134988#0 193134988#1 193134988#2 28408160#0 28408160#1 193139551 193139537 193139533 193139549#0 193139549#1 193139529 193139541#0 193139541#1 193139554#0 193139554#1 36729031 30528321#0 30528321#1 317000785 97129664#0 97129664#1 97129661#0 97129661#1 97129661#2 97129661#3 -1193733954 -81924137#2 -81924137#1 -81924137#0 -81924141#1 -81924141#0 -386781413 -28656019#3 -28656019#2 -28656019#1 -28656019#0 28656019#0 28656019#1"/>
    </vehicle>
    <vehicle id="8" depart="0.08">
        <route edges="-76334538 -76334539#2 -76334539#1 -76334539#0 -42919373#2 -42919373#1 42919373#1 42919373#2 76334539#0 76334539#1 76334539#2 76334538 217644146#0 217644146#1 30955822#0 30955822#1"/>
    </vehicle>
    <vehicle id="9" depart="0.09">
        <route edges="62212740 332402673#0 332402673#1 332402673#2 62212739#0 62212739#1 332402669#0 332402669#1 332402669#2 332402669#3 234002366 332402670#0 332402670#1 81522820#0 36729015#1 36729015#2 234072361 234072360#0 234072360#1 234072360#2 234072362 234100809#0 234100809#1 234100809#2 234100501#0 234100501#1 -37293912#0 -37293913#4 -37293913#3 -37293913#2 -37293913#1 -37293913#0 -114554802#9 -114554802#8 -114554802#7 -114554802#6 -114554802#5 -114554802#4 -114554802#3 -114554802#2 -114554802#1 -114554802#0"/>
    </vehicle>
    <vehicle id="10" depart="0.10">
        <route edges="62212737 62212741 234001133#0 234001133#1 234001132 332402672#0 332402672#1 234001131 132422343 62212740 332402673#0 332402673#1 332402673#2 -36729011#0 -316713564 -332402667 -21081120#4 -21081120#3 -21081120#2 -21081120#1 -21081120#0 -317000781#1 -317000781#0 -317000782 -29064946#1 -29064946#0 28408160#0 28408160#1 193139551 193139537 193139533 193139549#0 193139549#1 193139529 193139541#0 193139541#1 193139554#0 193139554#1 36729031 30528321#0 30528321#1 317000785 97129664#0 97129664#1 97129661#0 97129661#1 97129661#2 97129661#3 -1193733954 -1066551973#1 -1066551973#0 -77893327#1 -77893327#0 -77893340 -77893335 -77893331#1 -77893331#0 -1066551972#1 -1066551972#0 -77893344#2 -77893344#1 -77893344#0 -85247773 -85247774#1 -85247774#0 -123905592 -77893328#1 -77893328#0 30097052#1 85247849 60738729#0 60738729#1 -60754210#1 -60754210#0 -60754212 -60754208 -60754205#1 -60754205#0 -60754207 -60754209#1 -60754209#0 -60754211 -60754206 -36729039#2 -36729039#1 36729039#1"/>
    </vehicle>
    <vehicle id="11" depart="0.11">
        <route edges="122948858#0 122948858#1 114555767#0 114555767#1 114555767#2 114555767#3 114555767#4 1182860937 114555768#0 114555768#1 122949520#6 122949520#7 122949520#8 122949520#9 122949520#10 122949520#11 122949520#12 195828013#0 195828013#1 195828013#2 195828013#3 195828013#4 326150486#0 326150486#1 36729028#2 36729029#0 36729029#1 36729029#2 36729029#3 193134986#0 193134986#1 193134984 193134985 193134988#0 193134988#1 193134988#2 28408160#0 28408160#1 193139551 193139537 193139533 193139549#0 193139549#1 193139529 193139541#0 193139541#1 193139554#0 193139554#1 36729031 -36729030#1 -36729030#0 -18385008#3 -18385008#2 -18385008#1 -18385008#0 123911189#0 123911189#1 123911189#2 123911189#3 123911189#4 123911189#5 25614338#0 25614338#1 77615451#0 -77465095#1 -77465095#0 -77615029 -232042787 -77615028 -77647468#2 -77647468#1 -77647468#0 -77465096 -7920348#1 -7920348#0 -62383932#2 -62384085#1 -62384085#0 -62384087 -62384088 -62384086#3 -62384086#2 -62384086#1 -62384086#0 -62384084 -62384089 -7921261 -37498070 197339887#0 197339887#1 197339886 260944338#0 260944338#1 143057430 954213185 7921561#0 7921561#1 62382881 62382880#0 62382880#1 62382878#0 62382878#1 62382877 219090534#0 219090534#1 62384619#0 62384619#1 62382879 62382876 62384627#0 62384627#1 -28321714#0 -62384624 -62384622 -81356841#1 -81356841#0 -81356836#2 -81356836#1 -81356836#0 -81356843 -257702155#3 -257702155#2 -257702155#1 -257702155#0 -81356832#2 -81356832#1 -81356832#0 -62384625 -62384620 -62384623 -4243036#9"/>
    </vehicle>
    <vehicle id="13" depart="0.13">
        <route edges="-333061564 -81527785#1 -81527785#0 -333061571 -333061565 -572656872#1 -572656872#0 -81527787#1 -81527787#0 -81527791#2 -81527791#1 -81527791#0 -333061563 -333061574#3 -333061574#2 -333061574#1 -333061574#0 -333061569 -333061572#1"/>
    </vehicle>
    <vehicle id="14" depart="0.14">
        <route edges="74307865#1 74307865#2 143057426#0 143057426#1 315605356 315605355 4243036#0 194850767#2 194850767#3 75507914 75507913 75507915 74307849 74307860#0 74307860#1 76355638 76355639 76355640 76355641 166564261 166564262 99988875 99988876 202485897#0 202485897#1 155368069 155367885 155367884 99988877#0 99988877#1 28903078 132555329#0 132555329#1 132555329#2 37137192 30260452 37142312#0 37142312#1 37142312#2 122964118#0 122964118#1 37142311 211958287#0 211958287#1 62212735 62212736#0 62212736#1 62212736#2 62212736#3 62212737 62212741 234001133#0 234001133#1 234001132 332402672#0 332402672#1 234001131 132422343 62212740 332402673#0 332402673#1 332402673#2 -36729011#0 -316713564 -332402667 -21081120#4 -21081120#3 -21081120#2 -21081120#1 -21081120#0 -317000781#1 -317000781#0 -317000782 -29064946#1 -29064946#0 29064946#0 29064946#1 317000782"/>
    </vehicle>
    <vehicle id="15" depart="0.15">
        <route edges="62212739#0 62212739#1 332402669#0 332402669#1 332402669#2 332402669#3 234002366 332402670#0 332402670#1 81522820#0 36729015#1 36729015#2 234072361 234072360#0 234072360#1 234072360#2 234072362 234100809#0 234100809#1 234100809#2 234100501#0 234100501#1 37293912#1 948969467#0 948969467#1 948969467#2 29186154#0 29186154#1 29186154#2 29186154#3 29186154#4 29186154#5 -1122952688 -128171761 -62200559#1 -62200559#0 -316713565 -36729012 -36729011#1 -36729011#0 -316713564 -332402667 -21081120#4 -21081120#3 -21081120#2 -21081120#1 -21081120#0 -317000781#1 -317000781#0 -317000782 -29064946#1 -29064946#0 28408160#0 28408160#1 193139551 193139537 193139533 193139549#0 193139549#1 193139529 193139541#0 193139541#1 193139554#0 193139554#1 36729031 30528321#0 30528321#1 317000785 97129664#0 97129664#1 97129661#0 97129661#1 97129661#2 97129661#3 -1193733954 -81924137#2 -81924137#1 -81924137#0 -81924141#1 37290604#0 37290604#1 37290603#0 37290603#1 37290603#2 37290603#3"/>
    </vehicle>
    <vehicle id="16" depart="0.16">
        <route edges="26692016 77615448#0 77615448#1 30528320#0 30528320#1 30602647 194388451#0 194388451#1 194388451#2 127104874 34031654 62383934 259716340 62383931 62383930#0 62383930#1 62383930#2 62383930#3 62383930#4 62383932#0 62383932#1 62383932#2 127104868#0 127104868#1 36729037#0 36729037#1 36729037#2 77893334#0 77893334#1 77465097#0 77465097#1 77465097#2 77893337#0 77893337#1 77893337#2 54818682#0 54818682#1 54818681#0 -36729034 -42333036#1 -42333036#0 -42333035#1 -42333035#0 -36729033#1 -36729033#0 36729032#0 36729032#1 37290604#0 37290604#1 37290603#0 37290603#1 37290603#2 37290603#3 42333034#0 42333034#1 42333034#2 81924128 81924139#0 81924139#1 81924139#2 81924135 81924132#0 81924132#1 81924134#0 81924134#1 81924145#0 81924145#1"/>
    </vehicle>
    <vehicle id="17" depart="0.17">
        <route edges="129300233#0 129300233#1 129300238#0 129300238#1 -80727853#1 -80727853#0 -80727850#1 -80727850#0 -1122952686#1 -1122952686#0 29400781#0 29400781#1 29400781#2 324204703 324204704 324204705#0 324204705#1 28408345#0 28408345#1 324204711#0 324204711#1 310792148 62201410 62213052#0 62213052#1 62213052#2 62213050 36726223#0 36726223#1 36726224 62212960 234000028 76333545 76333547 233999572#0 233999572#1 233999572#2 15245482#0 15245482#1 15245482#2 15245482#3 62212961#0 62212961#1 98304770 233999099 76335031 76335649#0 76335649#1 30528321#0 30528321#1 317000785 97129664#0 97129664#1 97129661#0 97129661#1 97129661#2 97129661#3 -1193733954 -81924137#2 -81924137#1 -81924137#0 -81924141#1 -81924141#0 -386781413 -28656019#3 -28656019#2 -28656019#1 -28656019#0 28656022#0 28656022#1 196603721#0 196603721#1 -41454311#1 -41454311#0 -346307810#1 -346307810#0 -37265518#4 -37265518#3 -37265518#2 -37265518#1 -37265518#0 -244282080#1 28842837#0 28842837#1 28842837#2 28842837#3 28842837#4"/>
    </vehicle>
    <vehicle id="18" depart="0.18">
        <route edges="62384089 62384084 62384086#0 62384086#1 62384086#2 62384086#3 62384088 62384087 62384085#0 62384085#1 -62383932#1 -62383932#0 -62383930#4 -62383930#3 -62383930#2 -62383930#1 -62383930#0 -62383931 -259716340 -62383934 -34031654 -127104874 -37142650#1 -37142650#0 -4243035#2 -4243035#1 -4243035#0 -37142649 166564262 99988875 99988876 202485897#0 202485897#1 155368069 155367885 155367884 99988877#0 99988877#1 28903078 132555329#0 132555329#1 132555329#2 37137192 30260452 37142312#0 37142312#1 37142312#2 122964118#0 122964118#1 37142311 211958287#0 211958287#1 62212735 62212736#0 62212736#1 62212736#2 62212736#3 62212737 62212741 234001133#0 234001133#1 234001132 332402672#0 332402672#1 234001131 132422343 62212740 332402673#0 332402673#1 332402673#2 62212739#0 62212739#1 332402669#0 332402669#1 332402669#2 332402669#3 234002366 332402670#0 332402670#1 81522820#0 81522820#1 81522820#2 234002842#0 234002842#1 234002842#2 234002842#3 332402668#0 332402668#1 332399560#0 332399560#1 332399559 332399561#0 332399561#1"/>
    </vehicle>
    <vehicle id="19" depart="0.19">
        <route edges="76335031 76335649#0 76335649#1 -76335649#1 -76335649#0 -76335031 -233999099 -98304770 -62212961#1 -62212961#0 -15245482#3 -15245482#2 -15245482#1 -15245482#0 -233999572#2 -233999572#1 -233999572#0 -76333547 -76333545 -234000028 -62212960 -36726224 -36726223#1 -36726223#0 -62213050 -62213052#2 -62213052#1 -62213052#0 -62201410 -310792148 -80727852#1 -80727852#0 -81796384 -80727847#1 -80727847#0 -80727851 -1122952687#1 -1122952687#0 36729010 36726220#0 36726220#1 29400781#0 29400781#1 29400781#2 324204703 324204704 324204705#0 324204705#1 122886924#0 122886924#1 324204708 324204707#0 324204707#1 324204707#2 324204710#0 324204710#1 324204706 324204709#0 324204709#1 36726222 51707742#0 51707742#1 51707742#2 51707742#3 30287785#3"/>
    </vehicle>
    <vehicle id="20" depart="0.20">
        <route edges="36730337 201293692 201293693#0 201293693#1 232008578 74307851 36730332#0 36730332#1 36730332#2 36730332#3 36730332#4 36730332#5 36730333 75384651#0 75384651#1 74307865#0 74307865#1 74307865#2 143057426#0 143057426#1 315605356 315605355 4243036#0 194850767#2 194850767#3 75507914 75507913 75507915 74307849 74307860#0 74307860#1 76355638 76355639 76355640 76355641 166564261 166564262 99988875 99988876 202485897#0 202485897#1 155368069 155367885 155367884 99988877#0 99988877#1 28903078 132555329#0 132555329#1 132555329#2 37137192 30260452 37142312#0 37142312#1 37142312#2 122964118#0 122964118#1 37142311 211958287#0 211958287#1 62212735 62212736#0 62212736#1 36726223#1 36726224 62212960 234000028 76333545 76333547 233999572#0 233999572#1 233999572#2 15245482#0 15245482#1 15245482#2 15245482#3 -15245482#3"/>
    </vehicle>
    <vehicle id="21" depart="0.21">
        <route edges="-77615028 -77647468#2 -77647468#1 -77647468#0 -77465096 -7920348#1 -7920348#0 7920348#0 7920348#1 77465096 77647468#0 77647468#1 77647468#2 77615028 232042787 77615029 77465095#0 77465095#1 77615451#1 77615449 245187834 27132254#0 27132254#1 732635978 1021873104"/>
    </vehicle>
    <vehicle id="22" depart="0.22">
        <route edges="-30097052#0 -70957864 -70957866 -80715861#3 -80715861#2 80715861#2 80715861#3 70957866 70957864 30097052#0 77893328#0 77893328#1 123905592 85247774#0 85247774#1 85247773 77893344#0 77893344#1 -77893337#1 -77893337#0 -77465097#2 -77465097#1 -77465097#0 -77893334#1 -77893334#0"/>
    </vehicle>
    <vehicle id="23" depart="0.23">
        <route edges="-34031654 -127104874 127104874 34031654 62383934 259716340 62383931 62383930#0 62383930#1 62383930#2 62383930#3 62383930#4 62383932#0 62383932#1 62383932#2 127104868#0 127104868#1 36729037#0 36729037#1 36729037#2 77893334#0 77893334#1 77465097#0 77465097#1 77465097#2 77893337#0 77893337#1 77893337#2 54818682#0 54818682#1 54818681#0 -36729034 -42333036#1 -42333036#0 -42333035#1 -42333035#0 -36729033#1 -36729033#0 36729032#0 36729032#1 37290604#0 37290604#1 37290603#0 37290603#1 37290603#2 37290603#3 42333034#0 42333034#1 42333034#2 81924128 81924139#0 81924139#1 81924139#2 81924135 81924132#0 81924132#1 81924134#0 81924134#1 81924145#0 81924145#1 81924145#2 81924145#3 81924145#4 128562363 122950930 37290602 -37290602 -122950930 -128562363 -81924145#4"/>
    </vehicle>
    <vehicle id="24" depart="0.24">
        <route edges="333061567#0 333061567#1 333061568 333061573#0 333061573#1 333061573#2 30903129#0 30903129#1 30903129#2 126902358 42919376#0 42919376#1 42919375 126902357#0 126902357#1 42919374#0 42919374#1 42919374#2 42919371 42919372 42919373#0 42919373#1 42919373#2 76334539#0 76334539#1 76334539#2 76334538 217644146#0 217644146#1 15245482#0 15245482#1 15245482#2 15245482#3 62212961#0 62212961#1 98304770 233999099 76335031 76335649#0 76335649#1 30528321#0 30528321#1 317000785 97129664#0 97129664#1 97129661#0 97129661#1 97129661#2 97129661#3 -1193733954 -1066551973#1 -1066551973#0 -77893327#1 -77893327#0 -77893340 -77893335 -77893331#1 -77893331#0 -1066551972#1 -1066551972#0 -77893344#2 -77893344#1 -77893344#0 -85247773 -85247774#1 -85247774#0 -123905592 -77893328#1 -77893328#0 77893328#0 77893328#1 123905592"/>
    </vehicle>
    <vehicle id="25" depart="0.25">
        <route edges="123911189#4 123911189#5 25614338#0 25614338#1 77615451#0 -77465095#1 -77465095#0 -77615029 -232042787 -77615028 -77647468#2 -77647468#1 -77647468#0 -77465096 -7920348#1 -7920348#0 -62383932#2 -62384085#1 -62384085#0 -62384087 -62384088 -62384086#3 -62384086#2 -62384086#1 -62384086#0 -62384084 -62384089 -7921261 -37498070 197339887#0 197339887#1 197339886 260944338#0 260944338#1 143057430 954213185 7921561#0 7921561#1 62382881 62382880#0 62382880#1 62382878#0 62382878#1 62382877 219090534#0 219090534#1 62384619#0 62384619#1 62382879 62382876 62384627#0 62384627#1 -28321714#0 -62384624"/>
    </vehicle>
    <vehicle id="26" depart="0.26">
        <route edges="-81356841#1 -81356841#0 -81356836#2 -81356836#1 -81356836#0 -81356843 -257702155#3 -257702155#2 -257702155#1 -257702155#0 -81356832#2 -81356832#1 -81356832#0 -62384625 -62384620 -62384623 -4243036#9 -4243036#8 -4243036#7 -4243036#6 -4243036#5 -4243036#4 -4243036#3 -4243036#2 -4243036#1 194850767#2 194850767#3 75507914 75507913 75507915 74307849 74307860#0 74307860#1 76355638 76355639 76355640 76355641 166564261 166564262 99988875 99988876 202485897#0 202485897#1 155368069 155367885 155367884 99988877#0 99988877#1 28903078 132555329#0 132555329#1 132555329#2 37137192 30260452 37142312#0 37142312#1 37142312#2 122964118#0 122964118#1 37142311 211958287#0 211958287#1 62212735 62212736#0 62212736#1 62212736#2 62212736#3 62212737 62212741 234001133#0 234001133#1 234001132 332402672#0 332402672#1 234001131 132422343 62212740 332402673#0 332402673#1 332402673#2 62212739#0 62212739#1 332402669#0 332402669#1 332402669#2 332402669#3 234002366 332402670#0 332402670#1 81522820#0 81522820#1"/>
    </vehicle>
    <vehicle id="27" depart="0.27">
        <route edges="34031133#0 34031133#1 572656872#0 572656872#1 333061565 333061571 81527785#0 81527785#1 333061564 333061566 333061567#0 333061567#1 333061568 333061573#0 333061573#1 333061573#2 30903129#0 30903129#1 30903129#2 126902358 42919376#0 42919376#1 42919375 126902357#0 126902357#1 42919374#0 42919374#1 42919374#2 42919371 42919372 42919373#0 21081120#2 21081120#3 21081120#4 332402667 316713564 36729011#0 36729011#1 36729012 316713565 62200559#0 62200559#1 128171761 1122952688 36729010 36726220#0 36726220#1 29400781#0 29400781#1 29400781#2 324204703 324204704 324204705#0 324204705#1 122886924#0 122886924#1 324204708 324204707#0 324204707#1"/>
    </vehicle>
    <vehicle id="28" depart="0.28">
        <route edges="-572656872#1 -572656872#0 572656879#0 572656879#1 34031136 114555485#0 114555485#1 114555487 114555484 231158430#0 231158430#1 195828017#0 195828017#1 195828017#2 195828017#3 195828017#4 195828017#5 195828017#6 195828017#7 193134983 193134987 36729028#0 36729028#1 36729028#2 36729029#0 36729029#1 36729029#2 36729029#3 193134986#0 193134986#1 193134984 193134985 193134988#0 193134988#1 193134988#2 28408160#0 28408160#1 193139551 193139537 193139533 193139549#0 193139549#1 193139529 193139541#0 193139541#1 193139554#0 193139554#1 36729031 30528321#0 30528321#1 317000785 97129664#0 97129664#1 97129661#0 97129661#1 97129661#2 97129661#3 -1193733954 -81924137#2 -81924137#1 -81924137#0 -81924141#1 37290604#0 37290604#1 37290603#0 37290603#1 37290603#2"/>
    </vehicle>
    <vehicle id="29" depart="0.29">
        <route edges="-42919375 -42919376#1 -42919376#0 -126902358 -30903129#2 -30903129#1 -30903129#0 30568275#0 30568275#1 30568275#2 316590746#0 316590746#1 316590745 316590744 36729015#0 36729015#1 36729015#2 234072361 234072360#0 234072360#1 234072360#2 234072362 234100809#0 234100809#1 234100809#2 234100501#0 234100501#1 234100501#2 81523597#0 81523597#1 234101647#0 234101647#1 315443480 81523598#0 81523598#1 81523598#2 81523598#3 81523598#4 233567130 315443481#0 315443481#1 315443482#0 315443482#1 122886922#0 122886922#1 122886922#2 129300241#0 129300241#1 129300241#2 129300244#0 129300244#1 129300233#0 129300233#1 129300238#0"/>
    </vehicle>
    <vehicle id="30" depart="0.30">
        <route edges="866357682#2 34001456#0 34001456#1 25522290#0 25522290#1 81796303 81796301 81796302#0 81796302#1 81796302#2 217189183 217189184 217189185#0 217189185#1 217189185#2 217189186#0 217189186#1 187794586 187794592 187794600#0 187794600#1 187794600#2 122964118#0 122964118#1 37142311 211958287#0 211958287#1 62212735 62212736#0 62212736#1 62212736#2 62212736#3 62212737 62212741 234001133#0 234001133#1 234001132 332402672#0 332402672#1 234001131 132422343 62212740 332402673#0 332402673#1 332402673#2 -36729011#0 -316713564 -332402667 -21081120#4 -21081120#3 -21081120#2 -42919373#0 -42919372 -42919371 -42919374#2 -42919374#1 -42919374#0 -126902357#1 -126902357#0 -42919375 -42919376#1 -42919376#0 -126902358 -30903129#2 -30903129#1 -30903129#0 -333061573#2 -333061573#1 -333061573#0 -333061568 -333061567#1 -333061567#0 -333061566 -333061564 -81527785#1 -81527785#0 -333061571 -333061565 -572656872#1 -572656872#0 572656872#0 572656872#1 333061565 333061571 81527785#0 81527785#1 333061564 333061566 333061567#0 333061567#1 333061568 333061573#0 333061573#1"/>
    </vehicle>
    <vehicle id="31" depart="0.31">
        <route edges="29064946#1 317000782 317000781#0 317000781#1 21081120#0 21081120#1 -42919373#0 -42919372 -42919371 -42919374#2 -42919374#1 -42919374#0 -126902357#1 -126902357#0 -42919375 -42919376#1 -42919376#0 -126902358 -30903129#2 -30903129#1 -30903129#0 -333061573#2 -333061573#1 -333061573#0 -333061568 -333061567#1 -333061567#0 -333061566 -333061564 -81527785#1 -81527785#0 -333061571 -333061565 -572656872#1 -572656872#0 572656879#0 572656879#1 34031136 114555485#0 114555485#1 114555487 114555484 231158430#0 231158430#1 195828017#0 195828017#1 195828017#2 195828017#3 195828017#4 195828017#5 195828017#6 195828017#7 193134983 193134987 36729028#0 36729028#1 36729028#2 36729029#0 36729029#1"/>
    </vehicle>
    <vehicle id="32" depart="0.32">
        <route edges="74307852#0 74307852#1 4243036#9 62384623 62384620 62384625 81356832#0 81356832#1 81356832#2 257702155#0 257702155#1 257702155#2 257702155#3 81356843 81356836#0 81356836#1 81356836#2 81356841#0 81356841#1 62384622 62384624 28321714#0 -62384627#1 -62384627#0 -62382876 -62382879 -62384619#1 -62384619#0 -219090534#1 -219090534#0 -62382877 -62382878#1 -62382878#0 -62382880#1 -62382880#0 -62382881 -7921561#1 -7921561#0 -62382995#1 -62382995#0 -81241337 -81241338 -60738728 -60738729#3 -60738729#2 -60738729#1 -60738729#0 -85247849 -30097052#1 77893328#0 77893328#1 123905592 85247774#0 85247774#1 85247773 77893344#0 77893344#1 77893337#2 54818682#0 54818682#1 54818681#0"/>
    </vehicle>
    <vehicle id="34" depart="0.34">
        <route edges="114555281#0 114555281#1 81527786 114555279 316508912 316508913 34031133#0 34031133#1 572656879#0 572656879#1 34031136 114555485#0 114555485#1 114555487 114555484 231158430#0 231158430#1 195828017#0 195828017#1 195828017#2 195828017#3 195828017#4 195828017#5 195828017#6 195828017#7 193134983 193134987 36729028#0 36729028#1 36729028#2 36729029#0 36729029#1 36729029#2 36729029#3 193134986#0 193134986#1 193134984 193134985 193134988#0 193134988#1 193134988#2 28408160#0 28408160#1 193139551 193139537 193139533 193139549#0 193139549#1 193139529 193139541#0 193139541#1 193139554#0 193139554#1 36729031 -36729030#1 -36729030#0 -18385008#3 -18385008#2 -18385008#1 -18385008#0 123911189#0 123911189#1 123911189#2 123911189#3 123911189#4 123911189#5 25614338#0 25614338#1 77615451#0 -77465095#1 -77465095#0 -77615029 -232042787 -77615028 -77647468#2 -77647468#1 -77647468#0 -77465096 -7920348#1 -7920348#0 -62383932#2 -62384085#1 -62384085#0 -62384087 -62384088 -62384086#3 -62384086#2 -62384086#1 -62384086#0 -62384084 -62384089 -7921261 -37498070 197339887#0 197339887#1 197339886 260944338#0 260944338#1 143057430 954213185 7921561#0 7921561#1 62382881 62382880#0 62382880#1 62382878#0 62382878#1 62382877 219090534#0 219090534#1 62384619#0 62384619#1 62382879 62382876 62384627#0 62384627#1 -28321714#0 -62384624 -62384622 -81356841#1"/>
    </vehicle>
    <vehicle id="35" depart="0.35">
        <route edges="-62384627#1 -62384627#0 -62382876 -62382879 -62384619#1 -62384619#0 -219090534#1 -219090534#0 -62382877 -62382878#1 -62382878#0 -62382880#1 -62382880#0 -62382881 -7921561#1 -7921561#0 -62382995#1 -62382995#0 -81241337 -81241338 -60738728 -60738729#3 -60738729#2 -60738729#1 -60738729#0 -85247849 -30097052#1 77893328#0 77893328#1 123905592 85247774#0 85247774#1 85247773 77893344#0 77893344#1 77893337#2 54818682#0 54818682#1 54818681#0 -36729034 -42333036#1 -42333036#0 -42333035#1 -42333035#0 -36729033#1 -36729033#0 36729032#0 36729032#1 37290604#0 37290604#1 37290603#0 37290603#1 37290603#2 37290603#3 42333034#0 42333034#1 42333034#2 81924128 81924139#0 81924139#1 81924139#2 81924135 81924132#0 81924132#1 81924134#0 81924134#1 81924145#0 81924145#1 81924145#2 81924145#3 81924145#4 128562363 122950930 37290602 8014829#9 8014829#10 30001902#0 30001902#1 30001902#2 30001902#3 30001902#4 30001902#5 30001902#6 195828013#0 195828013#1 195828013#2 195828013#3 195828013#4 326150486#0 326150486#1 122950927#0 122950927#1 81527019#0 81527019#1"/>
    </vehicle>
    <vehicle id="36" depart="0.36">
        <route edges="77465095#0 77465095#1 77615451#1 77615449 245187834 26692016 77615448#0 77615448#1 30528320#0 30528320#1 30602647 194388451#0 194388451#1 194388451#2 -37142650#1 -37142650#0 -4243035#2 -4243035#1 -4243035#0 -37142649 166564262 99988875 99988876 202485897#0 202485897#1 155368069 155367885 155367884 99988877#0 99988877#1 28903078 132555329#0 132555329#1 132555329#2 37137192 30260452 37142312#0 37142312#1 37142312#2 122964118#0 122964118#1 37142311 211958287#0 211958287#1 62212735 62212736#0 62212736#1 62212736#2 62212736#3 62212737 62212741 234001133#0 234001133#1 234001132 332402672#0 332402672#1 234001131 132422343 62212740 332402673#0 332402673#1 332402673#2 62212739#0 62212739#1 332402669#0 332402669#1 332402669#2 332402669#3 234002366 332402670#0 332402670#1 81522820#0 81522820#1 81522820#2 234002842#0 234002842#1 234002842#2 234002842#3 332402668#0 332402668#1 332399560#0 332399560#1 332399559 332399561#0 332399561#1 114554764#2 114554757 114555282 114555280 114555281#0 114555281#1"/>
    </vehicle>
    <vehicle id="37" depart="0.37">