<additional>
<tazs>
<taz id="1" edges="45150439#0">
</taz>
<taz id="2" edges="30529424">
</taz>
<taz id="3" edges="77615982">
</taz>
<taz id="4" edges="30259989#2">
</taz>
<taz id="5" edges="211958287#0">
</taz>
<taz id="6" edges="81527191#3">
</taz>
<taz id="7" edges="15103559#0">
</taz>
<taz id="8" edges="193139541">
</taz>
<taz id="9" edges="62212085">
</taz>
<taz id="10" edges="62212735">
</taz>

<taz id="11" edges="-74307847">
</taz>
<taz id="12" edges="-80715855#1">
</taz>
<taz id="13" edges="37265518#1">
</taz>
<taz id="14" edges="-62383931">
</taz>
<taz id="15" edges="-122949524#3">
</taz>
<taz id="16" edges="36729014#0">
</taz>
</tazs>
</additional>